$DATA1 SOURCE='HSPICE' VERSION='P-2019.06-SP1-1 win64' PARAM_COUNT=0
.TITLE 'register'
 td_setup_time    td_clk-q         td_rise_time     td_fall_time    
 temper           alter#          
  1.147e-10        2.280e-10        1.575e-10        2.347e-10      
   25.0000        1               
