$DATA1 SOURCE='HSPICE' VERSION='P-2019.06-SP1-1 win64' PARAM_COUNT=0
.TITLE 'q1 dcvsl'
 td_lh            td_hl            avgpower_hight   avgpower_low    
 avgpower_dynamic_hight avgpower_dynamic_low temper          
 alter#          
  2.498e-11        1.352e-11        6.638e-08        8.139e-08      
  5.314e-06        5.933e-06         25.0000        1               
